
Submit job << GJI-2016-E1 >> in : /tigress/yanhuay/seisDD/Exp1/submit_job  
Working directory: /tigress/yanhuay/seisDD/Exp1/submit_job/GJI-2016-E1/specfem/
FINAL results in :  /tigress/yanhuay/seisDD/Exp1/submit_job/RESULTS/kernel/Scale0_CC_DD


start time is :  16:56:10

Re-Starting job ...
Clean up result/DISK directories ...

prepare data ...
0: allocate 1 sources over 1 tasks
0: iproc 0--1: nsrc_per_task=1
0: iproc 0-0: nsrc_per_task=1
0: iproc = 0, isource_start = 0, nsrc_this_task = 1, source: 1-1 
0: iproc = 0, isource = 1
0: copy data from /tigress/yanhuay/seisDD/Exp1/data

prepare starting model ...

********************************************************************************************************
       Welcome kernel Construction 
       Scale: '0' mode: '' measurement: 'CC' misfit_type: 'DD' 
********************************************************************************************************

Forward/Adjoint simulation for current model ...... 
0: iproc = 0, isource_start = 0, nsrc_this_task = 1,            source: 1-1 
0: iproc = 0, isource = 1
0: SPECFEM2D Forward Modeling ...
0: NPROC_SPECFEM=4
0: data_tag=DATA_syn
0: data_list=y
0: velocity_dir=/tigress/yanhuay/seisDD/Exp1/submit_job/GJI-2016-E1/output//m_current
0: SAVE_FORWARD=true
0: WORKING_DIR=/tigress/yanhuay/seisDD/Exp1/submit_job/GJI-2016-E1/specfem/
0: DISK_DIR=/tigress/yanhuay/seisDD/Exp1/submit_job/GJI-2016-E1/output/
0: DATA_DIR=/tigress/yanhuay/seisDD/Exp1/data
0: mpirun -np 4 ./bin/xspecfem2D
0: Adjoint source ...
0: NPROC_SPECFEM=4
0: compute_adjoint=true
0: data_list=y
0: measurement_list=CC
0: misfit_type_list=DD
0: Wscale=0
0: wavelet_path=
0: WORKING_DIR=/tigress/yanhuay/seisDD/Exp1/submit_job/GJI-2016-E1/specfem/
0: DISK_DIR=/tigress/yanhuay/seisDD/Exp1/submit_job/GJI-2016-E1/output/
0:  Running misfit_adjoint.exe on           4 processors
0:  myrank=           0  LOAD nrec_proc traces :            2
0:  seism_obs -- 
0:  /tigress/yanhuay/seisDD/Exp1/submit_job/GJI-2016-E1/output//000000//DATA_obs/Uy
0:  _file_single.su
0:  seism_syn -- 
0:  /tigress/yanhuay/seisDD/Exp1/submit_job/GJI-2016-E1/output//000000//DATA_syn/Uy
0:  _file_single.su
0:  xs,ys,zs   50000.00       50000.00      0.0000000E+00
0:  xr,yr,zr   270000.0       270000.0      0.0000000E+00
0:  xs,ys,zs   50000.00       50000.00      0.0000000E+00
0:  xr,yr,zr   350000.0       350000.0      0.0000000E+00
0:  xs,ys,zs   50000.00       50000.00      0.0000000E+00
0:  xr,yr,zr   270000.0       270000.0      0.0000000E+00
0:  xs,ys,zs   50000.00       50000.00      0.0000000E+00
0:  xr,yr,zr   350000.0       350000.0      0.0000000E+00
0:  Min / Max of seism_obs :  -1.0240157E-03  2.4835656E-03
0:  Min / Max of seism_syn :  -1.4237590E-03  3.0552135E-03
0:  SAVE processed seismic_obs -- 
0:  /tigress/yanhuay/seisDD/Exp1/submit_job/GJI-2016-E1/output//000000//DATA_obs/y_
0:  processed.bin
0:  SAVE processed seismic_syn -- 
0:  /tigress/yanhuay/seisDD/Exp1/submit_job/GJI-2016-E1/output//000000//DATA_syn/y_
0:  processed.bin
0:  
0:  pair irec=           1 jrec=           2
0:  window --         1092        2507        1575        3115
0:  cc similarity --   0.9987413    
0:  is_pair :            1
0:  misfit_CC_DD=  -2.580000    
0:  Min/Max of adj:   314.3761      -500.9040    
0:  Min/Max of adj_ref:   585.4335      -366.3719    
0:  Min/Max of adj :   314.3736      -500.9040    
0:  Min/Max of adj_ref:   585.4335      -366.3701    
0:  y: total number of AD measurements :           0  0.0000000E+00 %
0:  y: total number of DD measurements :           1   100.0000     %
0:  SAVE seism_adj -- 
0:  /tigress/yanhuay/seisDD/Exp1/submit_job/GJI-2016-E1/output//000000//SEM/Uy_file
0:  _single.su.adj
0:  Min / Max of seism_adj :   -500.9040       585.4334    
0:  SAVE misfit -- 
0:  /tigress/yanhuay/seisDD/Exp1/submit_job/GJI-2016-E1/output//000000//proc000000_
0:  misfit.dat
0:  myrank=           0  DD_CC misfit=    3.328200    
0:  Computation time with CPU:  6.8990007E-02
0: SPECFEM2D Adjoint Modeling ...
0: NPROC_SPECFEM=4
0: data_type=SEM
0: velocity_dir=/tigress/yanhuay/seisDD/Exp1/submit_job/GJI-2016-E1/output//m_current
0: SAVE_FORWARD=false
0: WORKING_DIR=/tigress/yanhuay/seisDD/Exp1/submit_job/GJI-2016-E1/specfem/
0: DISK_DIR=/tigress/yanhuay/seisDD/Exp1/submit_job/GJI-2016-E1/output/
0: mpirun -np 4 ./bin/xspecfem2D

sum event kernel ...... 
 Running sum_kernel.exe on           4 processors
  number of elements :          400
 LOAD event_kernel -- 
 /tigress/yanhuay/seisDD/Exp1/submit_job/GJI-2016-E1/specfem//000000/OUTPUT_FILE
 S/proc000000_beta_kernel.bin
  Min / Max event_kernel =  -2.5729545E-08  1.7468011E-08 for beta_kernel
 SAVE misfit_kernel -- 
 /tigress/yanhuay/seisDD/Exp1/submit_job/GJI-2016-E1/output//misfit_kernel/proc0
 00000_beta_kernel.bin
  Min / Max misfit_kernel =  -2.5729545E-08  1.7468011E-08 for beta_kernel
 LOAD event_kernel -- 
 /tigress/yanhuay/seisDD/Exp1/submit_job/GJI-2016-E1/specfem//000000/OUTPUT_FILE
 S/proc000000_hessian2_kernel.bin
  Min / Max event_kernel =  -6.1870848E-13  1.2699648E-12 for hessian2_kernel
 SAVE misfit_kernel -- 
 /tigress/yanhuay/seisDD/Exp1/submit_job/GJI-2016-E1/output//misfit_kernel/proc0
 00000_hessian2_kernel.bin
  Min / Max misfit_kernel =   1.5192494E-22  1.2699648E-12 for hessian2_kernel
 Computation time with CPU:  5.9990007E-03

smooth misfit kernel ... 
 Running XSMOOTH_SEM on           4 processors
 smoothing sigma_h , sigma_v                :    15000.00       15000.00    
 SAVE smooth kernel -- 
 /tigress/yanhuay/seisDD/Exp1/submit_job/GJI-2016-E1/output//misfit_kernel//proc
 000000_beta_kernel_smooth.bin
 SAVE smooth kernel -- 
 /tigress/yanhuay/seisDD/Exp1/submit_job/GJI-2016-E1/output//misfit_kernel//proc
 000000_hessian2_kernel_smooth.bin
 Computation time with CPU:  0.1689740    

******************finish all for scale 0 **************


 clean up local nodes (wait) ...... 

finish time is : 16:56:36
RUNTIME is :  0 hours ::  0 minutes  :: 26 seconds.

******************well done*******************************
