Submit job << Exp1 >> in : /tigress/yanhuay/seisDD/GJI2016/Exp1/test  
Working directory: /tigress/yanhuay/seisDD/GJI2016/Exp1/test/Exp1
FINAL results in :  /tigress/yanhuay/seisDD/GJI2016/Exp1/test/RESULTS/kernel/Scale0_CC_DD
start time is :  22:59:02

Re-Starting job ...
Clean up result/working directories ...

prepare data ...
0: allocate 1 sources over 1 tasks
0: iproc 0--1: nsrc_per_task=1
0: iproc 0-0: nsrc_per_task=1
0: iproc = 0, isource_start = 0, nsrc_this_task = 1, source: 1-1 
0: iproc = 0, isource = 1
0: copy data from /tigress/yanhuay/seisDD/GJI2016/Exp1/data
0: Data preparation took 0 seconds

prepare starting model ...

********************************************************************************************************
       Welcome job << kernel >> 
       Scale: '0'; measurement: 'CC'; misfit_type: 'DD' 
********************************************************************************************************
Forward/Adjoint simulation for current model ...... 
0: iproc = 0, isource_start = 0, nsrc_this_task = 1,         source: 1-1 
0: iproc = 0, isource = 1
0: SPECFEM2D Forward Modeling ...
0: NPROC_SPECFEM=4
0: data_tag=DATA_syn
0: data_list=y
0: velocity_dir=/tigress/yanhuay/seisDD/GJI2016/Exp1/test/RESULTS/kernel/Scale0_CC_DD/m_current
0: SAVE_FORWARD=true
0: WORKING_DIR=/tigress/yanhuay/seisDD/GJI2016/Exp1/test/Exp1
0: SUBMIT_RESULT=/tigress/yanhuay/seisDD/GJI2016/Exp1/data
0: job=kernel
0: mpirun -np 4 ./bin/xspecfem2D
0: Forward simulation took 3 seconds
0: adjoint source ...
0: NPROC_SPECFEM=4
0: compute_adjoint=true
0: data_list=y
0: measurement_list=CC
0: misfit_type_list=DD
0: Wscale=0
0: wavelet_path=/tigress/yanhuay/seisDD/seisDD/lib/WT_basis
0: WORKING_DIR=/tigress/yanhuay/seisDD/GJI2016/Exp1/test/Exp1
0:  Running misfit_adjoint.exe on           4 processors
0:  myrank=           0  LOAD nrec_proc traces :            2
0:  seism_obs -- 
0:  /tigress/yanhuay/seisDD/GJI2016/Exp1/test/Exp1/000000//DATA_obs/Uy_file_single.
0:  su
0:  seism_syn -- 
0:  /tigress/yanhuay/seisDD/GJI2016/Exp1/test/Exp1/000000//DATA_syn/Uy_file_single.
0:  su
0:  xs,ys,zs   50000.00       50000.00      0.0000000E+00
0:  xr,yr,zr   270000.0       270000.0      0.0000000E+00
0:  xs,ys,zs   50000.00       50000.00      0.0000000E+00
0:  xr,yr,zr   270000.0       270000.0      0.0000000E+00
0:  Min / Max of seism_obs :  -1.0240157E-03  2.4835656E-03
0:  Min / Max of seism_syn :  -1.4237596E-03  3.0552146E-03
0:  SAVE processed seismic_obs -- 
0:  /tigress/yanhuay/seisDD/GJI2016/Exp1/test/Exp1/000000//DATA_obs/y_processed.bin
0:  SAVE processed seismic_syn -- 
0:  /tigress/yanhuay/seisDD/GJI2016/Exp1/test/Exp1/000000//DATA_syn/y_processed.bin
0:  
0:  pair irec=           1 jrec=           2
0:  window --    73.61163       147.5859       100.3795       201.2535    
0:  rr distance dis_rr, DD_min/DD_max:    113137.1      1.1754944E-38
0:   3.4028235E+38
0:  cc similarity --   0.9955441    
0:  is_pair :            1
0:  *** Double-difference CC (traveltime) misfit
0:  
0:  time-domain winodw
0:  time window boundaries for d1/s1:         1226        2458
0:  time window length for d1/s1 :         1233
0:  time window boundaries for d2/s2:         1672        3353
0:  time window length for d2/s2 :         1682
0:  cc ishift/tsfhit/dlnA (d1-d2):          -50  -3.000000      0.2789400    
0:  cc ishift/tshift/dlnA (s1-s2):          -93  -5.580000      0.1451187    
0:  cc double-difference ddtshift/ddlnA of (s1-s2)-(d1-d2):   -2.580000    
0:  -0.1338214    
0:  cc_max_obs, cc_max_syn :   0.9955441      0.9967576    
0:  
0:  
0:  irec=           1 jrec=           2 misfit_CC_DD=   3.328200    
0:  Min/Max of adj :  -500.5857       314.1424    
0:  Min/Max of adj_ref:  -366.1349       585.0612    
0:  Total number of DD measurements :           1
0:  
0:  y comp
0:  misfit_CC_DD
0:  measurement_weight :    1.000000    
0:  total number of measurements :           1
0:  misfit_DD :   3.328200    
0:  min/max of adj :   -500.5856       585.0610    
0:  displacement adjoint
0:  
0:  SAVE seism_adj -- 
0:  /tigress/yanhuay/seisDD/GJI2016/Exp1/test/Exp1/000000//SEM/Uy_file_single.su.ad
0:  j
0:  Min / Max of final seism_adj :   -500.5856       585.0610    
0:  
0:  SAVE misfit -- 
0:  /tigress/yanhuay/seisDD/GJI2016/Exp1/test/Exp1/000000//proc000000_misfit.dat
0:  myrank=           0  final misfit_CC_DD=    3.328200    
0:  Computation time with CPU:  9.1986001E-02
0: adjoint source took 2 seconds
0: SPECFEM2D Adjoint Modeling ...
0: NPROC_SPECFEM=4
0: data_type=SEM
0: velocity_dir=/tigress/yanhuay/seisDD/GJI2016/Exp1/test/RESULTS/kernel/Scale0_CC_DD/m_current
0: SAVE_FORWARD=false
0: WORKING_DIR=/tigress/yanhuay/seisDD/GJI2016/Exp1/test/Exp1
0: mpirun -np 4 ./bin/xspecfem2D
0: Adjoint simulation took 10 seconds

data misfit ...... 
 read misfit file ... 
 myrank=           0  misfit=   3.328200    
 read misfit file ... 
 myrank=           1  misfit=  0.0000000E+00
 read misfit file ... 
 myrank=           2  misfit=  0.0000000E+00
 read misfit file ... 
 myrank=           3  misfit=  0.0000000E+00
 misfit_hist for niter           1 :   3.328200    

continue to calculate misfit kernel!

misfit kernel ...... 
 Running sum_kernel.exe on           4 processors
 number of elements :          400
 LOAD event_kernel --beta_kernel
  Min / Max =  -2.5705170E-08  1.7480629E-08
 SAVE misfit_kernel -- beta_kernel
  Min / Max =  -2.5705170E-08  1.7480629E-08
 LOAD event_kernel --Hessian2_kernel
  Min / Max =  -6.1921459E-13  1.2681795E-12
 SAVE misfit_kernel -- Hessian2_kernel
  Min / Max =  -6.1921459E-13  1.2681795E-12
 Computation time with CPU:  3.9999988E-03

smooth misfit kernel ... 
 Running XSMOOTH_SEM on           4 processors
 command line arguments:
   smoothing sigma_h , sigma_v                :    15000.00       15000.00    
   smoothing scalelengths horizontal, vertical:    42426.41       42426.41    
   input dir : 
 /tigress/yanhuay/seisDD/GJI2016/Exp1/test/RESULTS/kernel/Scale0_CC_DD/misfit_ke
 rnel/
   output dir: 
 /tigress/yanhuay/seisDD/GJI2016/Exp1/test/RESULTS/kernel/Scale0_CC_DD/misfit_ke
 rnel/
 
 
 Scaling values: min/max =   3.5342909E+08  1.4137175E+09
 written: 
 /tigress/yanhuay/seisDD/GJI2016/Exp1/test/RESULTS/kernel/Scale0_CC_DD/misfit_ke
 rnel//proc000000_beta_kernel_smooth.bin
 written: 
 /tigress/yanhuay/seisDD/GJI2016/Exp1/test/RESULTS/kernel/Scale0_CC_DD/misfit_ke
 rnel//proc000000_Hessian2_kernel_smooth.bin
 Computation time with CPU:   6.411026    
 Computation time with CPU:   6.411026    
 Computation time with CPU:   6.411025    
 
  Min / Max data value before smoothing =   5.7038782E-19  2.9311482E-07 for 
 beta_kernel
  Min / Max data value after smoothing  =   1.1620635E-19  2.9007513E-08 for 
 beta_kernel
 
  Min / Max data value before smoothing =   8.0655131E-25  3.4955721E-12 for 
 Hessian2_kernel
  Min / Max data value after smoothing  =   2.2553899E-23  8.8083208E-13 for 
 Hessian2_kernel
 Computation time with CPU:   6.408026    

******************finish all for scale 0 **************

 clean up local nodes (wait) ...... 

finish time is : 22:59:27
RUNTIME is :  0 hours ::  0 minutes  :: 25 seconds.

******************well done*******************************
